/*--------------------------------*- C++ -*----------------------------------*\
| =========                 |                                                 |
| \\      /  F ield         | OpenFOAM: The Open Source CFD Toolbox           |
|  \\    /   O peration     | Version:  2.1.1                                 |
|   \\  /    A nd           | Web:      www.OpenFOAM.org                      |
|    \\/     M anipulation  |                                                 |
\*---------------------------------------------------------------------------*/
FoamFile
{
    version     2.0;
    format      ascii;
    class       dictionary;
    location    "system";
    object      fvSolution;
}
// * * * * * * * * * * * * * * * * * * * * * * * * * * * * * * * * * * * * * //

solvers
{
    p
    {
        solver          psolver;
        smoother        psmooth;
	preconditioner	pprecon;
        cacheAgglomeration true;
        nCellsInCoarsestLevel 10;
        agglomerator    faceAreaPair;
        mergeLevels     1;
        tolerance       ptol;
        relTol          ureltol;
    }

    pFinal
    {
        solver          psolver;
        tolerance       ptol;
        relTol          0;
        smoother        psmooth;
        cacheAgglomeration true;
        nCellsInCoarsestLevel 10;
        agglomerator    faceAreaPair;
        mergeLevels     1;
    }

    U
    {
        solver          usolver;
        smoother        usmooth;
	preconditioner	uprecon;
        cacheAgglomeration true;
        nCellsInCoarsestLevel 10;
        agglomerator    faceAreaPair;
        mergeLevels     1;
        tolerance       utol;
        relTol          ureltol;
    }

    "(U|k|epsilon)Final"
    {
        $U;
        tolerance       utol;
        relTol          0;
    }
}

PIMPLE
{
    nOuterCorrectors 4;
    nCorrectors     1;
    nNonOrthogonalCorrectors 0;
    pRefCell        0;
    pRefValue       0;
}

SIMPLE
{
    nNonOrthogonalCorrectors 0;
    residualControl
    {
        p               1e-2;
        U               1e-3;
        "(k|epsilon)"   1e-3;
    }
}

relaxationFactors
{
    fields
    {
        p               0.3;
    }
    equations
    {
        U               0.7;
        k               0.7;
        "epsilon.*"     0.7;
    }
}

cache
{
    grad(U);
}

PISO
{
    nCorrectors     0;
    nNonOrthogonalCorrectors 0;
}

// ************************************************************************* //
